benzene_mono_top
                    3D
 Structure written by MMmdl.
 27 27  0  0  1  0            999 V2000
   -2.0847   -1.2036    0.0000 C   0  0  0  0  0  0
   -0.6949   -1.2036    0.0000 C   0  0  0  0  0  0
    0.0000    0.0000    0.0000 C   0  0  0  0  0  0
   -0.6949    1.2036   -0.0000 C   0  0  0  0  0  0
   -2.0847    1.2036    0.0000 C   0  0  0  0  0  0
   -2.7797    0.0000    0.0000 C   0  0  0  0  0  0
   -4.2797    0.0000    0.0000 C   0  0  0  0  0  0
   -4.7797    0.7071   -1.2247 C   0  0  0  0  0  0
   -6.2797    0.7071   -1.2247 C   0  0  0  0  0  0
   -6.7797    1.4142   -2.4495 C   0  0  0  0  0  0
   -8.2797    1.4142   -2.4495 C   0  0  0  0  0  0
   -2.6258   -2.1407   -0.0000 H   0  0  0  0  0  0
   -0.1539   -2.1407    0.0000 H   0  0  0  0  0  0
   -0.1539    2.1407    0.0000 H   0  0  0  0  0  0
   -2.6258    2.1407   -0.0000 H   0  0  0  0  0  0
   -4.6430    0.5138    0.8900 H   0  0  0  0  0  0
   -4.6430   -1.0277   -0.0000 H   0  0  0  0  0  0
   -4.4163    0.1933   -2.1147 H   0  0  0  0  0  0
   -4.4163    1.7348   -1.2247 H   0  0  0  0  0  0
   -6.6430    1.2209   -0.3348 H   0  0  0  0  0  0
   -6.6430   -0.3206   -1.2247 H   0  0  0  0  0  0
   -6.4163    0.9004   -3.3395 H   0  0  0  0  0  0
   -6.4163    2.4419   -2.4495 H   0  0  0  0  0  0
   -8.6430    1.9280   -3.3395 H   0  0  0  0  0  0
   -8.6430    0.3866   -2.4495 H   0  0  0  0  0  0
   -8.6430    1.9280   -1.5595 H   0  0  0  0  0  0
    1.0800   -0.0000   -0.0000 H   0  0  0  0  0  0
  1  2  1  0  0  0
  1  6  2  0  0  0
  1 12  1  0  0  0
  2  3  2  0  0  0
  2 13  1  0  0  0
  3  4  1  0  0  0
  3 27  1  0  0  0
  4  5  2  0  0  0
  4 14  1  0  0  0
  5  6  1  0  0  0
  5 15  1  0  0  0
  6  7  1  0  0  0
  7  8  1  0  0  0
  7 16  1  0  0  0
  7 17  1  0  0  0
  8  9  1  0  0  0
  8 18  1  0  0  0
  8 19  1  0  0  0
  9 10  1  0  0  0
  9 20  1  0  0  0
  9 21  1  0  0  0
 10 11  1  0  0  0
 10 22  1  0  0  0
 10 23  1  0  0  0
 11 24  1  0  0  0
 11 25  1  0  0  0
 11 26  1  0  0  0
M  END
> <s_m_entry_id>
4

> <s_m_entry_name>
entry

> <r_f3d_energy>
0

> <i_f3d_flags>
0

$$$$
benzene_mono_bot
                    3D
 Structure written by MMmdl.
 27 27  0  0  1  0            999 V2000
   -2.0847   -1.2036    0.0000 C   0  0  0  0  0  0
   -0.6949   -1.2036    0.0000 C   0  0  0  0  0  0
    0.0000    0.0000    0.0000 C   0  0  0  0  0  0
   -0.6949    1.2036   -0.0000 C   0  0  0  0  0  0
   -2.0847    1.2036    0.0000 C   0  0  0  0  0  0
   -2.7797    0.0000    0.0000 C   0  0  0  0  0  0
    1.5000    0.0000    0.0000 C   0  0  0  0  0  0
    2.0000    0.0000    1.4142 C   0  0  0  0  0  0
    3.5000   -0.0000    1.4142 C   0  0  0  0  0  0
    4.0000    0.0000    2.8284 C   0  0  0  0  0  0
    5.5000   -0.0000    2.8284 C   0  0  0  0  0  0
   -2.6258   -2.1407   -0.0000 H   0  0  0  0  0  0
   -0.1539   -2.1407    0.0000 H   0  0  0  0  0  0
   -0.1539    2.1407    0.0000 H   0  0  0  0  0  0
   -2.6258    2.1407   -0.0000 H   0  0  0  0  0  0
    1.8633    0.8900   -0.5138 H   0  0  0  0  0  0
    1.8633   -0.8900   -0.5138 H   0  0  0  0  0  0
    1.6367   -0.8900    1.9280 H   0  0  0  0  0  0
    1.6367    0.8900    1.9280 H   0  0  0  0  0  0
    3.8633    0.8900    0.9004 H   0  0  0  0  0  0
    3.8633   -0.8900    0.9004 H   0  0  0  0  0  0
    3.6367   -0.8900    3.3423 H   0  0  0  0  0  0
    3.6367    0.8900    3.3423 H   0  0  0  0  0  0
    5.8633   -0.0000    3.8561 H   0  0  0  0  0  0
    5.8633   -0.8900    2.3146 H   0  0  0  0  0  0
    5.8633    0.8900    2.3146 H   0  0  0  0  0  0
   -3.8597    0.0000   -0.0000 H   0  0  0  0  0  0
  1  2  1  0  0  0
  1  6  2  0  0  0
  1 12  1  0  0  0
  2  3  2  0  0  0
  2 13  1  0  0  0
  3  4  1  0  0  0
  3  7  1  0  0  0
  4  5  2  0  0  0
  4 14  1  0  0  0
  5  6  1  0  0  0
  5 15  1  0  0  0
  6 27  1  0  0  0
  7  8  1  0  0  0
  7 16  1  0  0  0
  7 17  1  0  0  0
  8  9  1  0  0  0
  8 18  1  0  0  0
  8 19  1  0  0  0
  9 10  1  0  0  0
  9 20  1  0  0  0
  9 21  1  0  0  0
 10 11  1  0  0  0
 10 22  1  0  0  0
 10 23  1  0  0  0
 11 24  1  0  0  0
 11 25  1  0  0  0
 11 26  1  0  0  0
M  END
> <s_m_entry_id>
2

> <s_m_entry_name>
entry

> <r_f3d_energy>
0

> <i_f3d_flags>
0

$$$$
benzene_di_both
                    3D
 Structure written by MMmdl.
 42 42  0  0  1  0            999 V2000
   -2.0847   -1.2036    0.0000 C   0  0  0  0  0  0
   -0.6949   -1.2036    0.0000 C   0  0  0  0  0  0
    0.0000    0.0000    0.0000 C   0  0  0  0  0  0
   -0.6949    1.2036   -0.0000 C   0  0  0  0  0  0
   -2.0847    1.2036    0.0000 C   0  0  0  0  0  0
   -2.7797    0.0000    0.0000 C   0  0  0  0  0  0
    1.5000    0.0000    0.0000 C   0  0  0  0  0  0
    2.0000    0.0000    1.4142 C   0  0  0  0  0  0
    3.5000   -0.0000    1.4142 C   0  0  0  0  0  0
    4.0000    0.0000    2.8284 C   0  0  0  0  0  0
    5.5000   -0.0000    2.8284 C   0  0  0  0  0  0
   -4.2797    0.0000    0.0000 C   0  0  0  0  0  0
   -4.7797    0.7071   -1.2247 C   0  0  0  0  0  0
   -6.2797    0.7071   -1.2247 C   0  0  0  0  0  0
   -6.7797    1.4142   -2.4495 C   0  0  0  0  0  0
   -8.2797    1.4142   -2.4495 C   0  0  0  0  0  0
   -2.6258   -2.1407   -0.0000 H   0  0  0  0  0  0
   -0.1539   -2.1407    0.0000 H   0  0  0  0  0  0
   -0.1539    2.1407    0.0000 H   0  0  0  0  0  0
   -2.6258    2.1407   -0.0000 H   0  0  0  0  0  0
    1.8633    0.8900   -0.5138 H   0  0  0  0  0  0
    1.8633   -0.8900   -0.5138 H   0  0  0  0  0  0
    1.6367   -0.8900    1.9280 H   0  0  0  0  0  0
    1.6367    0.8900    1.9280 H   0  0  0  0  0  0
    3.8633    0.8900    0.9004 H   0  0  0  0  0  0
    3.8633   -0.8900    0.9004 H   0  0  0  0  0  0
    3.6367   -0.8900    3.3423 H   0  0  0  0  0  0
    3.6367    0.8900    3.3423 H   0  0  0  0  0  0
    5.8633   -0.0000    3.8561 H   0  0  0  0  0  0
    5.8633   -0.8900    2.3146 H   0  0  0  0  0  0
    5.8633    0.8900    2.3146 H   0  0  0  0  0  0
   -4.6430    0.5138    0.8900 H   0  0  0  0  0  0
   -4.6430   -1.0277   -0.0000 H   0  0  0  0  0  0
   -4.4163    0.1933   -2.1147 H   0  0  0  0  0  0
   -4.4163    1.7348   -1.2247 H   0  0  0  0  0  0
   -6.6430    1.2209   -0.3348 H   0  0  0  0  0  0
   -6.6430   -0.3206   -1.2247 H   0  0  0  0  0  0
   -6.4163    0.9004   -3.3395 H   0  0  0  0  0  0
   -6.4163    2.4419   -2.4495 H   0  0  0  0  0  0
   -8.6430    1.9280   -3.3395 H   0  0  0  0  0  0
   -8.6430    0.3866   -2.4495 H   0  0  0  0  0  0
   -8.6430    1.9280   -1.5595 H   0  0  0  0  0  0
  1  2  1  0  0  0
  1  6  2  0  0  0
  1 17  1  0  0  0
  2  3  2  0  0  0
  2 18  1  0  0  0
  3  4  1  0  0  0
  3  7  1  0  0  0
  4  5  2  0  0  0
  4 19  1  0  0  0
  5  6  1  0  0  0
  5 20  1  0  0  0
  6 12  1  0  0  0
  7  8  1  0  0  0
  7 21  1  0  0  0
  7 22  1  0  0  0
  8  9  1  0  0  0
  8 23  1  0  0  0
  8 24  1  0  0  0
  9 10  1  0  0  0
  9 25  1  0  0  0
  9 26  1  0  0  0
 10 11  1  0  0  0
 10 27  1  0  0  0
 10 28  1  0  0  0
 11 29  1  0  0  0
 11 30  1  0  0  0
 11 31  1  0  0  0
 12 13  1  0  0  0
 12 32  1  0  0  0
 12 33  1  0  0  0
 13 14  1  0  0  0
 13 34  1  0  0  0
 13 35  1  0  0  0
 14 15  1  0  0  0
 14 36  1  0  0  0
 14 37  1  0  0  0
 15 16  1  0  0  0
 15 38  1  0  0  0
 15 39  1  0  0  0
 16 40  1  0  0  0
 16 41  1  0  0  0
 16 42  1  0  0  0
M  END
> <s_m_entry_id>
1

> <s_m_entry_name>
entry

> <r_f3d_energy>
0

> <i_f3d_flags>
0

$$$$
benzene
                    3D
 Structure written by MMmdl.
 12 12  0  0  1  0            999 V2000
   -2.0847   -1.2036    0.0000 C   0  0  0  0  0  0
   -0.6949   -1.2036    0.0000 C   0  0  0  0  0  0
    0.0000    0.0000    0.0000 C   0  0  0  0  0  0
   -0.6949    1.2036   -0.0000 C   0  0  0  0  0  0
   -2.0847    1.2036    0.0000 C   0  0  0  0  0  0
   -2.7797    0.0000    0.0000 C   0  0  0  0  0  0
   -2.6258   -2.1407   -0.0000 H   0  0  0  0  0  0
   -0.1539   -2.1407    0.0000 H   0  0  0  0  0  0
   -0.1539    2.1407    0.0000 H   0  0  0  0  0  0
   -2.6258    2.1407   -0.0000 H   0  0  0  0  0  0
   -3.8597    0.0000   -0.0000 H   0  0  0  0  0  0
    1.0800   -0.0000   -0.0000 H   0  0  0  0  0  0
  1  2  1  0  0  0
  1  6  2  0  0  0
  1  7  1  0  0  0
  2  3  2  0  0  0
  2  8  1  0  0  0
  3  4  1  0  0  0
  3 12  1  0  0  0
  4  5  2  0  0  0
  4  9  1  0  0  0
  5  6  1  0  0  0
  5 10  1  0  0  0
  6 11  1  0  0  0
M  END
> <s_m_entry_id>
3

> <s_m_entry_name>
entry

> <r_f3d_energy>
0

> <i_f3d_flags>
0

$$$$
