CHEMBL3664148
     RDKit          3D

 43 46  0  0  1  0  0  0  0  0999 V2000
   -7.1031    2.8377    4.7733 C   0  0  0  0  0  0  0  0  0  0  0  0
    5.2102   -6.1295   10.2390 C   0  0  0  0  0  0  0  0  0  0  0  0
    5.1554   -2.5407    5.9871 C   0  0  0  0  0  0  0  0  0  0  0  0
    5.0854   -1.6572    4.8992 C   0  0  0  0  0  0  0  0  0  0  0  0
   -0.4853    0.3327    4.8672 C   0  0  0  0  0  0  0  0  0  0  0  0
   -2.9585    1.2195    4.8701 C   0  0  0  0  0  0  0  0  0  0  0  0
   -0.1125   -1.5615    6.3538 C   0  0  0  0  0  0  0  0  0  0  0  0
    5.0029   -4.3348    8.4516 C   0  0  0  0  0  0  0  0  0  0  0  0
    3.1485   -5.1350    9.2315 C   0  0  0  0  0  0  0  0  0  0  0  0
    3.9727   -2.7323    6.7255 C   0  0  0  0  0  0  0  0  0  0  0  0
   -1.8462    0.3958    5.2476 C   0  0  0  0  0  0  0  0  0  0  0  0
    0.3886   -0.6326    5.4105 C   0  0  0  0  0  0  0  0  0  0  0  0
   -1.4594   -1.5261    6.7501 C   0  0  0  0  0  0  0  0  0  0  0  0
   -4.0458    0.7880    5.5907 C   0  0  0  0  0  0  0  0  0  0  0  0
    3.9456   -3.7125    7.8215 C   0  0  0  0  0  0  0  0  0  0  0  0
   -2.3072   -0.5495    6.2079 C   0  0  0  0  0  0  0  0  0  0  0  0
    2.8823   -1.2584    5.3513 C   0  0  0  0  0  0  0  0  0  0  0  0
   -5.4578    1.2122    5.6378 C   0  0  0  0  0  0  0  0  0  0  0  0
   -3.6425   -0.2655    6.3941 N   0  0  0  0  0  0  0  0  0  0  0  0
    3.9411   -1.0238    4.5797 N   0  0  0  0  0  0  0  0  0  0  0  0
    2.7553   -4.2379    8.3352 N   0  0  0  0  0  0  0  0  0  0  0  0
    2.8495   -2.0558    6.4180 N   0  0  0  0  0  0  0  0  0  0  0  0
   -5.7697    2.2613    4.8673 N   0  0  0  0  0  0  0  0  0  0  0  0
    1.7147   -0.6449    4.9502 N   0  0  0  0  0  0  0  0  0  0  0  0
    4.4762   -5.2412    9.3594 N   0  0  0  0  0  0  0  0  0  0  0  0
   -6.2759    0.6232    6.3459 O   0  0  0  0  0  0  0  0  0  0  0  0
   -2.0663   -2.7008    7.8612 Cl  0  0  0  0  0  0  0  0  0  0  0  0
   -7.1018    3.6831    4.0868 H   0  0  0  0  0  0  0  0  0  0  0  0
   -7.4444    3.1931    5.7468 H   0  0  0  0  0  0  0  0  0  0  0  0
   -7.8180    2.1037    4.3988 H   0  0  0  0  0  0  0  0  0  0  0  0
    4.6424   -6.2992   11.1572 H   0  0  0  0  0  0  0  0  0  0  0  0
    5.3763   -7.0889    9.7406 H   0  0  0  0  0  0  0  0  0  0  0  0
    6.1780   -5.6907   10.4875 H   0  0  0  0  0  0  0  0  0  0  0  0
    6.0704   -3.0650    6.2143 H   0  0  0  0  0  0  0  0  0  0  0  0
    5.9440   -1.4742    4.2715 H   0  0  0  0  0  0  0  0  0  0  0  0
   -0.1252    1.0315    4.1263 H   0  0  0  0  0  0  0  0  0  0  0  0
   -2.9262    2.0189    4.1448 H   0  0  0  0  0  0  0  0  0  0  0  0
    0.5028   -2.3413    6.7760 H   0  0  0  0  0  0  0  0  0  0  0  0
    6.0688   -4.2241    8.3094 H   0  0  0  0  0  0  0  0  0  0  0  0
    2.4543   -5.7357    9.8024 H   0  0  0  0  0  0  0  0  0  0  0  0
   -4.2771   -0.7349    7.0244 H   0  0  0  0  0  0  0  0  0  0  0  0
   -5.0348    2.6777    4.3172 H   0  0  0  0  0  0  0  0  0  0  0  0
    1.8529   -0.0803    4.1167 H   0  0  0  0  0  0  0  0  0  0  0  0
  1 23  1  0
  1 28  1  0
  1 29  1  0
  1 30  1  0
  2 25  1  0
  2 31  1  0
  2 32  1  0
  2 33  1  0
  3  4  2  0
  3 10  1  0
  3 34  1  0
  4 20  1  0
  4 35  1  0
  5 11  2  0
  5 12  1  0
  5 36  1  0
  6 11  1  0
  6 14  2  0
  6 37  1  0
  7 12  2  0
  7 13  1  0
  7 38  1  0
  8 15  2  0
  8 25  1  0
  8 39  1  0
  9 21  2  0
  9 25  1  0
  9 40  1  0
 10 15  1  0
 10 22  2  0
 11 16  1  0
 12 24  1  0
 13 16  2  0
 13 27  1  0
 14 18  1  0
 14 19  1  0
 15 21  1  0
 16 19  1  0
 17 20  2  0
 17 22  1  0
 17 24  1  0
 18 23  1  0
 18 26  2  0
 19 41  1  0
 23 42  1  0
 24 43  1  0
M  END
>  <Name>  (1) 
CHEMBL3664148

>  <s_m_entry_id>  (1) 
7087

>  <s_m_entry_name>  (1) 
syk2_dataset_prepped.444

>  <s_m_Source_Path>  (1) 
/Users/dmoustakas/Desktop/syk2

>  <s_m_Source_File>  (1) 
syk2_dataset_prepped.sdf

>  <i_m_Source_File_Index>  (1) 
444

>  <Molecule ChEMBL ID>  (1) 
CHEMBL3664148

>  <Standard Value>  (1) 
1.4

>  <pChEMBL Value>  (1) 
8.85

>  <i_lp_mmshare_version>  (1) 
55123

>  <s_lp_Force_Field>  (1) 
S-OPLS

>  <r_lp_Energy>  (1) 
29.683766

>  <b_lp_Chiralities_Consistent>  (1) 
1

>  <s_lp_Variant>  (1) 
CHEMBL3664148-1

>  <s_m_job_name>  (1) 
glide-dock_SP_14

>  <i_f3d_flags>  (1) 
0

>  <s_i_glide_gridfile>  (1) 
glide-grid_1

>  <i_i_glide_lignum>  (1) 
444

>  <i_i_glide_rotatable_bonds>  (1) 
5

>  <r_i_docking_score>  (1) 
-8.12835112326503

>  <r_i_glide_ligand_efficiency>  (1) 
-0.301050041602409

>  <r_i_glide_ligand_efficiency_sa>  (1) 
-0.903150123815014

>  <r_i_glide_ligand_efficiency_ln>  (1) 
-1.89214613515467

>  <r_i_glide_gscore>  (1) 
-8.12835112326503

>  <r_i_glide_lipo>  (1) 
-2.66908604022987

>  <r_i_glide_hbond>  (1) 
-0.572546582272182

>  <r_i_glide_metal>  (1) 
0

>  <r_i_glide_rewards>  (1) 
-2.14936788970428

>  <r_i_glide_evdw>  (1) 
-40.6070861816406

>  <r_i_glide_ecoul>  (1) 
-6.49992275238037

>  <r_i_glide_erotb>  (1) 
0.372892279690394

>  <r_i_glide_esite>  (1) 
-0.104900168810002

>  <r_i_glide_emodel>  (1) 
-68.2116122621991

>  <r_i_glide_energy>  (1) 
-47.107008934021

>  <r_i_glide_einternal>  (1) 
2.19357705116272

>  <i_i_glide_confnum>  (1) 
21

>  <i_i_glide_posenum>  (1) 
4

>  <r_i_glide_eff_state_penalty>  (1) 
0

>  <r_i_glide_rmsd>  (1) 
0.0398537420860492

>  <s_glide_core_constrain_type>  (1) 
snapped_core_restrain

>  <s_m_subgroup_title>  (1) 
glide-dock_SP_14_pv1

>  <s_m_subgroupid>  (1) 
glide-dock_SP_14_pv1

>  <b_m_subgroup_collapsed>  (1) 
0

>  <SMILES>  (1) 
CNC(=O)c1cc2cc(cc(c2[nH]1)Cl)Nc1nccc(n1)-c1cn(cn1)C

>  <PosCount>  (1) 
0

>  <NegCount>  (1) 
0

>  <IC50_uM>  (1) 
0.0014

$$$$
CHEMBL3668838
     RDKit          3D

 52 56  0  0  1  0  0  0  0  0999 V2000
   -1.9734   -2.4920    7.7839 C   0  0  0  0  0  0  0  0  0  0  0  0
    4.9434   -6.1221   10.3319 C   0  0  0  0  0  0  0  0  0  0  0  0
    5.1457   -2.5586    5.9914 C   0  0  0  0  0  0  0  0  0  0  0  0
    5.0857   -1.6719    4.9034 C   0  0  0  0  0  0  0  0  0  0  0  0
   -9.0457    0.4634    1.9225 C   0  0  0  0  0  0  0  0  0  0  0  0
   -8.0997    0.7234    0.9618 C   0  0  0  0  0  0  0  0  0  0  0  0
   -0.1045   -1.5405    6.3665 C   0  0  0  0  0  0  0  0  0  0  0  0
   -0.4836    0.3270    4.8474 C   0  0  0  0  0  0  0  0  0  0  0  0
   -2.9626    1.1817    4.7985 C   0  0  0  0  0  0  0  0  0  0  0  0
    4.8729   -4.3440    8.5265 C   0  0  0  0  0  0  0  0  0  0  0  0
    2.9620   -5.1371    9.1698 C   0  0  0  0  0  0  0  0  0  0  0  0
   -7.1396    2.5515    4.3130 C   0  0  0  0  0  0  0  0  0  0  0  0
   -1.4516   -1.5045    6.7639 C   0  0  0  0  0  0  0  0  0  0  0  0
    3.9613   -2.7339    6.7328 C   0  0  0  0  0  0  0  0  0  0  0  0
   -1.8444    0.3823    5.2167 C   0  0  0  0  0  0  0  0  0  0  0  0
    0.3930   -0.6230    5.4103 C   0  0  0  0  0  0  0  0  0  0  0  0
   -4.0555    0.7376    5.5014 C   0  0  0  0  0  0  0  0  0  0  0  0
    3.8687   -3.7158    7.8225 C   0  0  0  0  0  0  0  0  0  0  0  0
   -7.6438    1.7800    3.1351 C   0  0  0  0  0  0  0  0  0  0  0  0
   -2.3050   -0.5444    6.1954 C   0  0  0  0  0  0  0  0  0  0  0  0
    2.8850   -1.2531    5.3487 C   0  0  0  0  0  0  0  0  0  0  0  0
   -5.4813    1.1098    5.4716 C   0  0  0  0  0  0  0  0  0  0  0  0
   -3.6483   -0.2743    6.3557 N   0  0  0  0  0  0  0  0  0  0  0  0
   -8.7680    1.0569    3.1564 N   0  0  0  0  0  0  0  0  0  0  0  0
    3.9475   -1.0279    4.5777 N   0  0  0  0  0  0  0  0  0  0  0  0
    2.6419   -4.2362    8.2504 N   0  0  0  0  0  0  0  0  0  0  0  0
    2.8508   -2.0400    6.4198 N   0  0  0  0  0  0  0  0  0  0  0  0
   -5.7901    2.0984    4.6226 N   0  0  0  0  0  0  0  0  0  0  0  0
    1.7170   -0.6376    4.9485 N   0  0  0  0  0  0  0  0  0  0  0  0
    4.2754   -5.2421    9.3976 N   0  0  0  0  0  0  0  0  0  0  0  0
   -6.3101    0.5231    6.1692 O   0  0  0  0  0  0  0  0  0  0  0  0
   -6.8255    1.7452    1.5702 S   0  0  0  0  0  0  0  0  0  0  0  0
   -1.1780   -3.1350    8.1626 H   0  0  0  0  0  0  0  0  0  0  0  0
   -2.3914   -1.9426    8.6221 H   0  0  0  0  0  0  0  0  0  0  0  0
   -2.7528   -3.1223    7.3549 H   0  0  0  0  0  0  0  0  0  0  0  0
    4.2644   -6.4041   11.1386 H   0  0  0  0  0  0  0  0  0  0  0  0
    5.2739   -7.0237    9.8151 H   0  0  0  0  0  0  0  0  0  0  0  0
    5.8137   -5.6187   10.7536 H   0  0  0  0  0  0  0  0  0  0  0  0
    6.0509   -3.0992    6.2224 H   0  0  0  0  0  0  0  0  0  0  0  0
    5.9491   -1.4914    4.2791 H   0  0  0  0  0  0  0  0  0  0  0  0
   -9.9417   -0.1333    1.8199 H   0  0  0  0  0  0  0  0  0  0  0  0
   -8.0765    0.3845   -0.0630 H   0  0  0  0  0  0  0  0  0  0  0  0
    0.5188   -2.3042    6.8005 H   0  0  0  0  0  0  0  0  0  0  0  0
   -0.1217    1.0142    4.0953 H   0  0  0  0  0  0  0  0  0  0  0  0
   -2.9311    1.9588    4.0482 H   0  0  0  0  0  0  0  0  0  0  0  0
    5.9457   -4.2415    8.4639 H   0  0  0  0  0  0  0  0  0  0  0  0
    2.2242   -5.7310    9.6901 H   0  0  0  0  0  0  0  0  0  0  0  0
   -7.1178    3.6126    4.0643 H   0  0  0  0  0  0  0  0  0  0  0  0
   -7.8139    2.4296    5.1630 H   0  0  0  0  0  0  0  0  0  0  0  0
   -4.2899   -0.7421    6.9811 H   0  0  0  0  0  0  0  0  0  0  0  0
   -5.0337    2.5119    4.0971 H   0  0  0  0  0  0  0  0  0  0  0  0
    1.8474   -0.1069    4.0936 H   0  0  0  0  0  0  0  0  0  0  0  0
  1 13  1  0
  1 33  1  0
  1 34  1  0
  1 35  1  0
  2 30  1  0
  2 36  1  0
  2 37  1  0
  2 38  1  0
  3  4  2  0
  3 14  1  0
  3 39  1  0
  4 25  1  0
  4 40  1  0
  5  6  2  0
  5 24  1  0
  5 41  1  0
  6 32  1  0
  6 42  1  0
  7 13  2  0
  7 16  1  0
  7 43  1  0
  8 15  1  0
  8 16  2  0
  8 44  1  0
  9 15  1  0
  9 17  2  0
  9 45  1  0
 10 18  2  0
 10 30  1  0
 10 46  1  0
 11 26  2  0
 11 30  1  0
 11 47  1  0
 12 19  1  0
 12 28  1  0
 12 48  1  0
 12 49  1  0
 13 20  1  0
 14 18  1  0
 14 27  2  0
 15 20  2  0
 16 29  1  0
 17 22  1  0
 17 23  1  0
 18 26  1  0
 19 24  2  0
 19 32  1  0
 20 23  1  0
 21 25  2  0
 21 27  1  0
 21 29  1  0
 22 28  1  0
 22 31  2  0
 23 50  1  0
 28 51  1  0
 29 52  1  0
M  END
>  <Name>  (2) 
CHEMBL3668838

>  <s_m_entry_id>  (2) 
7167

>  <s_m_entry_name>  (2) 
syk2_dataset_prepped.304

>  <s_m_Source_Path>  (2) 
/Users/dmoustakas/Desktop/syk2

>  <s_m_Source_File>  (2) 
syk2_dataset_prepped.sdf

>  <i_m_Source_File_Index>  (2) 
304

>  <Molecule ChEMBL ID>  (2) 
CHEMBL3668838

>  <Standard Value>  (2) 
3.3

>  <pChEMBL Value>  (2) 
8.48

>  <i_lp_mmshare_version>  (2) 
55123

>  <s_lp_Force_Field>  (2) 
S-OPLS

>  <r_lp_Energy>  (2) 
32.819163

>  <b_lp_Chiralities_Consistent>  (2) 
1

>  <s_lp_Variant>  (2) 
CHEMBL3668838-1

>  <s_m_job_name>  (2) 
glide-dock_SP_14

>  <i_f3d_flags>  (2) 
0

>  <s_i_glide_gridfile>  (2) 
glide-grid_1

>  <i_i_glide_lignum>  (2) 
304

>  <i_i_glide_rotatable_bonds>  (2) 
7

>  <r_i_docking_score>  (2) 
-7.97808129104995

>  <r_i_glide_ligand_efficiency>  (2) 
-0.249315040345311

>  <r_i_glide_ligand_efficiency_sa>  (2) 
-0.791525913716875

>  <r_i_glide_ligand_efficiency_ln>  (2) 
-1.78650987534847

>  <r_i_glide_gscore>  (2) 
-7.97808129104995

>  <r_i_glide_lipo>  (2) 
-2.67234820766019

>  <r_i_glide_hbond>  (2) 
-0.590383162912501

>  <r_i_glide_metal>  (2) 
0

>  <r_i_glide_rewards>  (2) 
-1.7217794847852

>  <r_i_glide_evdw>  (2) 
-43.5628051757812

>  <r_i_glide_ecoul>  (2) 
-7.57379007339478

>  <r_i_glide_erotb>  (2) 
0.425130536087133

>  <r_i_glide_esite>  (2) 
-0.10449220198091

>  <r_i_glide_emodel>  (2) 
-75.5946251055139

>  <r_i_glide_energy>  (2) 
-51.136595249176

>  <r_i_glide_einternal>  (2) 
2.97888922691345

>  <i_i_glide_confnum>  (2) 
200

>  <i_i_glide_posenum>  (2) 
105

>  <r_i_glide_eff_state_penalty>  (2) 
0

>  <r_i_glide_rmsd>  (2) 
0.0404526621814702

>  <s_glide_core_constrain_type>  (2) 
snapped_core_restrain

>  <s_m_subgroup_title>  (2) 
glide-dock_SP_14_pv1

>  <s_m_subgroupid>  (2) 
glide-dock_SP_14_pv1

>  <b_m_subgroup_collapsed>  (2) 
0

>  <SMILES>  (2) 
Cc1cc(cc2cc([nH]c12)C(=O)NCc1nccs1)Nc1nccc(n1)-c1cn(cn1)C

>  <PosCount>  (2) 
0

>  <NegCount>  (2) 
0

>  <IC50_uM>  (2) 
0.0033

$$$$
